* DIODES INCORPORATED AND ITS AFFILIATED COMPANIES AND SUBSIDIARIES (COLLECTIVELY, "DIODES") 
* PROVIDE THESE SPICE MODELS AND DATA (COLLECTIVELY, THE "SM DATA") "AS IS" AND WITHOUT ANY 
* REPRESENTATIONS OR WARRANTIES, EXPRESS OR IMPLIED, INCLUDING ANY WARRANTY OF MERCHANTABILITY 
* OR FITNESS FOR A PARTICULAR PURPOSE, ANY WARRANTY ARISING FROM COURSE OF DEALING OR COURSE OF 
* PERFORMANCE, OR ANY WARRANTY THAT ACCESS TO OR OPERATION OF THE SM DATA WILL BE UNINTERRUPTED, 
* OR THAT THE SM DATA OR ANY SIMULATION USING THE SM DATA WILL BE ERROR FREE. TO THE MAXIMUM 
* EXTENT PERMITTED BY LAW, IN NO EVENT WILL DIODES BE LIABLE FOR ANY DIRECT OR INDIRECT, 
* SPECIAL, INCIDENTAL, PUNITIVE OR CONSEQUENTIAL DAMAGES ARISING OUT OF OR IN CONNECTION WITH 
* THE PRODUCTION OR USE OF SM DATA, HOWEVER CAUSED AND UNDER WHATEVER CAUSE OF ACTION OR THEORY 
* OF LIABILITY BROUGHT (INCLUDING, WITHOUT LIMITATION, UNDER ANY CONTRACT, NEGLIGENCE OR OTHER 
* TORT THEORY OF LIABILITY), EVEN IF DIODES HAS BEEN ADVISED OF THE POSSIBILITY OF SUCH DAMAGES, 
* AND DIODES' TOTAL LIABILITY (WHETHER IN CONTRACT, TORT OR OTHERWISE) WITH REGARD TO THE SM 
* DATA WILL NOT, IN THE AGGREGATE, EXCEED ANY SUMS PAID BY YOU TO DIODES FOR THE SM DATA.


.SUBCKT MMDT3906 E1 B1 C2 E2 B2 C1

*SRC=MMDT3906;DI_MMDT3906;BJTs PNP; Si;  40.0V  0.200A  257MHz   Diodes
Inc. BJTs - Single device of dual
.MODEL DI_MMDT3906  PNP (IS=7.21e-016 NF=1.00 BF=410 VAF=114
+ IKF=48.6m ISE=1.01p NE=2.00 BR=4.00 NR=1.00
+ VAR=20.0 IKR=0.120 RE=1.21 RB=4.83 RC=0.483
+ XTB=1.5 CJE=10.9p VJE=1.10 MJE=0.500 CJC=7.57p VJC=0.300 MJC=0.300 
+ TF=558p TR=84.1n EG=1.12 )

Q1 C1 B1 E1 DI_MMDT3906

Q2 C2 B2 E2 DI_MMDT3906

.ENDS